*SRC=SF10GG;DI_SF10GG;Diodes;Si; 400V 1.00A 40.0ns Diodes Inc. -
.MODEL DI_SF10GG D ( IS=50.9p RS=75.5m BV=400 IBV=10.0u
+ CJO=139p M=0.333 N=1.70 TT=57.6n )

*=========================================================================================================


*SRC=SF10HG;DI_SF10HG;Diodes;Si; 500V 1.00A 50.0ns Diodes Inc. -
.MODEL DI_SF10HG D ( IS=13.5u RS=30.9m BV=500 IBV=10.0u
+ CJO=92.5p M=0.333 N=5.40 TT=72.0n )

*=========================================================================================================


*SRC=SF10JG;DI_SF10JG;Diodes;Si;  600V  1.00A  50.0ns   Diodes Inc. -
.MODEL DI_SF10JG D  ( IS=13.5u RS=30.9m BV=600 IBV=10.0u
+ CJO=92.5p  M=0.333 N=5.40 TT=72.0n )

*=========================================================================================================


*SRC=UF1001;DI_UF1001;Diodes;Si;  50.0V  1.00A  50.0ns   Diodes Inc. 1.0A Ultra-Fast Rectifier
.MODEL DI_UF1001 D  ( IS=125u RS=17.5m BV=50.0 IBV=5.00u
+ CJO=79.6p  M=0.333 N=3.75 TT=72.0n )

*=========================================================================================================


*SRC=UF1002;DI_UF1002;Diodes;Si;  100V  1.00A  50.0ns   Diodes Inc. 1.0A Ultra-Fast Rectifier
.MODEL DI_UF1002 D  ( IS=125u RS=17.5m BV=100 IBV=5.00u
+ CJO=79.6p  M=0.333 N=3.75 TT=72.0n )

*=========================================================================================================


*SRC=UF1003;DI_UF1003;Diodes;Si;  200V  1.00A  50.0ns   Diodes Inc. 1.0A Ultra-Fast Rectifier
.MODEL DI_UF1003 D  ( IS=125u RS=17.5m BV=200 IBV=5.00u
+ CJO=79.6p  M=0.333 N=3.75 TT=72.0n )

*=========================================================================================================


*SRC=UF1004;DI_UF1004;Diodes;Si;  400V  1.00A  50.0ns   Diodes Inc. 1.0A Ultra-Fast Rectifier
.MODEL DI_UF1004 D  ( IS=38.7u RS=15.4m BV=400 IBV=5.00u
+ CJO=79.6p  M=0.333 N=4.17 TT=72.0n )

*=========================================================================================================


*SRC=UF1005;DI_UF1005;Diodes;Si;  600V  1.00A  50.0ns   Diodes Inc. 1.0A Ultra-Fast Rectifier
.MODEL DI_UF1005 D  ( IS=13.9u RS=56.6m BV=600 IBV=5.00u
+ CJO=46.4p  M=0.333 N=4.11 TT=72.0n )

*=========================================================================================================


*SRC=UF1006;DI_UF1006;Diodes;Si;  800V  1.00A  50.0ns   Diodes Inc. 1.0A Ultra-Fast Rectifier
.MODEL DI_UF1006 D  ( IS=13.9u RS=56.6m BV=800 IBV=5.00u
+ CJO=46.4p  M=0.333 N=4.11 TT=72.0n )

*=========================================================================================================


*SRC=UF1007;DI_UF1007;Diodes;Si;  1.00kV  1.00A  50.0ns   Diodes Inc. 1.0A Ultra-Fast Rectifier
.MODEL DI_UF1007 D  ( IS=13.9u RS=56.6m BV=1.00k IBV=5.00u
+ CJO=46.4p  M=0.333 N=4.11 TT=72.0n )

*=========================================================================================================

*SRC=UF3001;DI_UF3001;Diodes;Si;  50.0V  3.00A  50.0ns   Diodes Inc. Ultra-Fast Rectifier
.MODEL DI_UF3001 D  ( IS=70.7u RS=43.0u BV=50.0 IBV=10.0u
+ CJO=139p  M=0.333 N=4.27 TT=72.0n )

*=========================================================================================================

*SRC=UF3002;DI_UF3002;Diodes;Si;  100V  3.00A  50.0ns   Diodes Inc. Ultra-Fast Rectifier
.MODEL DI_UF3002 D  ( IS=70.7u RS=43.0u BV=100 IBV=5.00u
+ CJO=139p  M=0.333 N=4.27 TT=72.0n )

*=========================================================================================================

*SRC=UF3003;DI_UF3003;Diodes;Si;  200V  3.00A  50.0ns   Diodes Inc. Ultra-Fast Rectifier
.MODEL DI_UF3003 D  ( IS=70.7u RS=43.0u BV=200 IBV=5.00u
+ CJO=139p  M=0.333 N=4.27 TT=72.0n )

*=========================================================================================================

*SRC=UF3004;DI_UF3004;Diodes;Si;  400V  3.00A  50.0ns   Diodes Inc. Ultra-Fast Rectifier
.MODEL DI_UF3004 D  ( IS=9.58u RS=15.4m BV=400 IBV=5.00u
+ CJO=139p  M=0.333 N=3.45 TT=72.0n )

*=========================================================================================================

*SRC=UF3005;DI_UF3005;Diodes;Si;  600V  3.00A  75.0ns   Diodes Inc. Ultra-Fast Rectifier
.MODEL Di_UF3005 D  ( IS=4.50u RS=14.1m BV=600 IBV=10.0u
+ CJO=92.5p  M=0.333 N=4.29 TT=108n )

*=========================================================================================================

*SRC=UF3006;DI_UF3006;Diodes;Si;  800V  3.00A  75.0ns   Diodes Inc. Ultra-Fast Rectifier
.MODEL Di_UF3006 D  ( IS=4.50u RS=14.1m BV=800 IBV=10.0u
+ CJO=92.5p  M=0.333 N=4.29 TT=108n )

*=========================================================================================================

*SRC=UF3007;Di_UF3007;Diodes;Si;  1.00kV  3.00A  75.0ns   Diodes Inc. Ultra-Fast Rectifier
.MODEL Di_UF3007 D  ( IS=4.50u RS=14.1m BV=1.00k IBV=10.0u
+ CJO=92.5p  M=0.333 N=4.29 TT=108n )

*=========================================================================================================

*SRC=US1A;DI_US1A;Diodes;Si;  50.0V  1.00A  50.0ns   Diodes Inc. -
.MODEL DI_US1A D  ( IS=667n RS=72.0m BV=50.0 IBV=5.00u
+ CJO=37.0p  M=0.333 N=2.41 TT=72.0n )

*=========================================================================================================

*SRC=US1B;DI_US1B;Diodes;Si;  100V  1.00A  50.0ns   Diodes Inc. -
.MODEL DI_US1B D  ( IS=667n RS=72.0m BV=100 IBV=5.00u
+ CJO=37.0p  M=0.333 N=2.41 TT=72.0n )

*=========================================================================================================

*SRC=US1D;DI_US1D;Diodes;Si;  200V  1.00A  50.0ns   Diodes Inc. -
.MODEL DI_US1D D  ( IS=667n RS=72.0m BV=200 IBV=5.00u
+ CJO=37.0p  M=0.333 N=2.41 TT=72.0n )

*=========================================================================================================

*SRC=US1G;DI_US1G;Diodes;Si;  400V  1.00A  50.0ns   Diodes Inc.
.MODEL DI_US1G D  ( IS=540p RS=0.116 BV=400 IBV=5.00u
+ CJO=37.0p  M=0.333 N=1.70 TT=72.0n )

*=========================================================================================================

*SRC=US1J;DI_US1J;Diodes;Si;  600V  1.00A  75.0ns   Diodes Inc. -
.MODEL DI_US1J D  ( IS=709n RS=82.3m BV=600 IBV=5.00u
+ CJO=18.5p  M=0.333 N=3.23 TT=108n )

*=========================================================================================================

*SRC=US1K;DI_US1K;Diodes;Si;  800V  1.00A  75.0ns   Diodes Inc. -
.MODEL DI_US1K D  ( IS=709n RS=82.3m BV=800 IBV=5.00u
+ CJO=18.5p  M=0.333 N=3.23 TT=108n )

*=========================================================================================================

*SRC=US1M;DI_US1M;Diodes;Si;  1.00kV  1.00A  75.0ns   Diodes Inc. -
.MODEL DI_US1M D  ( IS=709n RS=82.3m BV=1.00k IBV=5.00u
+ CJO=18.5p  M=0.333 N=3.23 TT=108n )


*SRC=UF5A400D1;DI_UF5A400D1;Diodes;Si;  400V  5.00A  28.0ns   Diodes Inc. Ultra-Fast Rectifier
.MODEL DI_UF5A400D1 D  ( IS=129n RS=20.58m BV=510 IBV=10.00u
+ CJO=125.5p  M=0.333 N=1.9 TT=28.0n)