* Delay Model
* Buffer type behavioral digital device

.SUBCKT delay in out
+PARAMS: DELAY=1e-6 TS={GLOBAL_TS*1e-3}

VDPWR DPWR 0 1
UDELAYBUF BUF DPWR 0 in out DMODEL

.model DMODEL DIG (
+ CLO=0 CHI=0
+ S0RLO=0.1 S0RHI=1000 S0TSW=TS
+ S0VLO=-100 S0VHI=0.1
+ S1RLO=1000 S1RHI=0.1 S1TSW=TS
+ S1VLO=0.9 S1VHI=100
+ RLOAD=1e4
+ CLOAD=0 )

.ENDS delay
